<?xml version="1.0" encoding="UTF-8"?>

<!-- generated on 2020. márc. 26., csütörtök, 23:22:19 CET by Eclipse SUMO netedit Version 1.2.0
<configuration xmlns:xsi="http://www.w3.org/2001/XMLSchema-instance" xsi:noNamespaceSchemaLocation="http://sumo.dlr.de/xsd/netconvertConfiguration.xsd">

    <input>
        <osm-files value="/home/tom/Dokumentumok/SUMO/MAS/MAS/sumo-agent-examples/Elte/elte.osm"/>
    </input>

    <projection>
        <proj.utm value="true"/>
    </projection>

    <processing>
        <geometry.remove value="true"/>
    </processing>

    <tls_building>
        <tls.discard-simple value="true"/>
        <tls.guess-signals value="true"/>
    </tls_building>

    <ramp_guessing>
        <ramps.guess value="true"/>
    </ramp_guessing>

    <edge_removal>
        <keep-edges.by-vclass value="delivery"/>
    </edge_removal>

    <junctions>
        <junctions.join value="true"/>
    </junctions>

</configuration>
-->

<net version="1.1" junctionCornerDetail="5" limitTurnSpeed="5.50" xmlns:xsi="http://www.w3.org/2001/XMLSchema-instance" xsi:noNamespaceSchemaLocation="http://sumo.dlr.de/xsd/net_file.xsd">

    <location netOffset="-353531.61,-5259102.36" convBoundary="0.00,0.00,629.78,991.23" origBoundary="19.053568,47.468478,19.064846,47.483995" projParameter="+proj=utm +zone=34 +ellps=WGS84 +datum=WGS84 +units=m +no_defs"/>

    <type id="highway.bridleway" priority="1" numLanes="1" speed="2.78" allow="pedestrian" oneway="1" width="2.00"/>
    <type id="highway.bus_guideway" priority="1" numLanes="1" speed="27.78" allow="bus" oneway="1"/>
    <type id="highway.cycleway" priority="1" numLanes="1" speed="8.33" allow="bicycle" oneway="0" width="1.00"/>
    <type id="highway.footway" priority="1" numLanes="1" speed="2.78" allow="pedestrian" oneway="1" width="2.00"/>
    <type id="highway.ford" priority="1" numLanes="1" speed="2.78" allow="army" oneway="0"/>
    <type id="highway.living_street" priority="2" numLanes="1" speed="2.78" disallow="tram rail_urban rail rail_electric ship" oneway="0"/>
    <type id="highway.motorway" priority="14" numLanes="2" speed="39.44" allow="private emergency authority army vip passenger hov taxi bus coach delivery truck trailer motorcycle evehicle custom1 custom2" oneway="1"/>
    <type id="highway.motorway_link" priority="9" numLanes="1" speed="22.22" allow="private emergency authority army vip passenger hov taxi bus coach delivery truck trailer motorcycle evehicle custom1 custom2" oneway="1"/>
    <type id="highway.path" priority="1" numLanes="1" speed="2.78" allow="bicycle pedestrian" oneway="1" width="2.00"/>
    <type id="highway.pedestrian" priority="1" numLanes="1" speed="2.78" allow="pedestrian" oneway="1" width="2.00"/>
    <type id="highway.primary" priority="12" numLanes="2" speed="27.78" disallow="tram rail_urban rail rail_electric ship" oneway="0"/>
    <type id="highway.primary_link" priority="7" numLanes="1" speed="22.22" disallow="tram rail_urban rail rail_electric ship" oneway="0"/>
    <type id="highway.raceway" priority="15" numLanes="2" speed="83.33" allow="vip" oneway="0"/>
    <type id="highway.residential" priority="3" numLanes="1" speed="13.89" disallow="tram rail_urban rail rail_electric ship" oneway="0"/>
    <type id="highway.secondary" priority="11" numLanes="2" speed="27.78" disallow="tram rail_urban rail rail_electric ship" oneway="0"/>
    <type id="highway.secondary_link" priority="6" numLanes="1" speed="22.22" disallow="tram rail_urban rail rail_electric ship" oneway="0"/>
    <type id="highway.service" priority="1" numLanes="1" speed="5.56" allow="delivery bicycle pedestrian" oneway="0"/>
    <type id="highway.stairs" priority="1" numLanes="1" speed="1.39" allow="pedestrian" oneway="1" width="2.00"/>
    <type id="highway.step" priority="1" numLanes="1" speed="1.39" allow="pedestrian" oneway="1" width="2.00"/>
    <type id="highway.steps" priority="1" numLanes="1" speed="1.39" allow="pedestrian" oneway="1" width="2.00"/>
    <type id="highway.tertiary" priority="10" numLanes="1" speed="22.22" disallow="tram rail_urban rail rail_electric ship" oneway="0"/>
    <type id="highway.tertiary_link" priority="5" numLanes="1" speed="22.22" disallow="tram rail_urban rail rail_electric ship" oneway="0"/>
    <type id="highway.track" priority="1" numLanes="1" speed="5.56" disallow="tram rail_urban rail rail_electric ship" oneway="0"/>
    <type id="highway.trunk" priority="13" numLanes="2" speed="27.78" disallow="tram rail_urban rail rail_electric bicycle pedestrian ship" oneway="0"/>
    <type id="highway.trunk_link" priority="8" numLanes="1" speed="22.22" disallow="tram rail_urban rail rail_electric bicycle pedestrian ship" oneway="0"/>
    <type id="highway.unclassified" priority="4" numLanes="1" speed="13.89" disallow="tram rail_urban rail rail_electric ship" oneway="0"/>
    <type id="highway.unsurfaced" priority="1" numLanes="1" speed="8.33" disallow="tram rail_urban rail rail_electric ship" oneway="0"/>
    <type id="railway.light_rail" priority="19" numLanes="1" speed="27.78" allow="rail_urban" oneway="1"/>
    <type id="railway.preserved" priority="16" numLanes="1" speed="27.78" allow="rail" oneway="1"/>
    <type id="railway.rail" priority="20" numLanes="1" speed="83.33" allow="rail rail_electric" oneway="1"/>
    <type id="railway.subway" priority="18" numLanes="1" speed="27.78" allow="rail_urban" oneway="1"/>
    <type id="railway.tram" priority="17" numLanes="1" speed="13.89" allow="tram" oneway="1"/>

    <edge id=":1308241841_0" function="internal">
        <lane id=":1308241841_0_0" index="0" disallow="tram rail_urban rail rail_electric ship" speed="3.65" length="4.67" shape="478.50,737.61 479.45,738.69 479.63,739.57 479.03,740.24 477.67,740.69"/>
    </edge>
    <edge id=":1654525680_0" function="internal">
        <lane id=":1654525680_0_0" index="0" disallow="tram rail_urban rail rail_electric ship" speed="6.51" length="9.07" shape="297.17,147.54 294.70,147.36 292.77,148.02 291.37,149.52 290.51,151.86"/>
    </edge>
    <edge id=":1654525680_1" function="internal">
        <lane id=":1654525680_1_0" index="0" disallow="tram rail_urban rail rail_electric ship" speed="13.89" length="14.43" shape="297.17,147.54 283.04,144.61"/>
    </edge>
    <edge id=":1654525680_2" function="internal">
        <lane id=":1654525680_2_0" index="0" disallow="tram rail_urban rail rail_electric ship" speed="8.07" length="14.23" shape="297.17,147.54 293.52,146.18 291.16,143.98 290.08,140.94 290.29,137.06"/>
    </edge>
    <edge id=":1654525680_3" function="internal">
        <lane id=":1654525680_3_0" index="0" disallow="tram rail_urban rail rail_electric ship" speed="3.65" length="4.67" shape="297.17,147.54 296.17,146.50 295.95,145.63 296.51,144.94 297.86,144.41"/>
    </edge>
    <edge id=":1654525680_4" function="internal">
        <lane id=":1654525680_4_0" index="0" disallow="tram rail_urban rail rail_electric ship" speed="6.59" length="9.14" shape="293.43,137.68 293.30,140.17 293.99,142.13 295.51,143.54 297.86,144.41"/>
    </edge>
    <edge id=":1654525680_5" function="internal">
        <lane id=":1654525680_5_0" index="0" disallow="tram rail_urban rail rail_electric ship" speed="13.89" length="14.48" shape="293.43,137.68 290.51,151.86"/>
    </edge>
    <edge id=":1654525680_6" function="internal">
        <lane id=":1654525680_6_0" index="0" disallow="tram rail_urban rail rail_electric ship" speed="8.02" length="6.00" shape="293.43,137.68 292.14,141.35 290.72,142.91"/>
    </edge>
    <edge id=":1654525680_7" function="internal">
        <lane id=":1654525680_7_0" index="0" disallow="tram rail_urban rail rail_electric ship" speed="3.65" length="2.34" shape="293.43,137.68 292.41,138.71 291.55,138.94"/>
    </edge>
    <edge id=":1654525680_16" function="internal">
        <lane id=":1654525680_16_0" index="0" disallow="tram rail_urban rail rail_electric ship" speed="8.02" length="8.24" shape="290.72,142.91 289.98,143.73 286.95,144.81 283.04,144.61"/>
    </edge>
    <edge id=":1654525680_17" function="internal">
        <lane id=":1654525680_17_0" index="0" disallow="tram rail_urban rail rail_electric ship" speed="3.65" length="2.34" shape="291.55,138.94 290.84,138.40 290.29,137.06"/>
    </edge>
    <edge id=":1654525680_8" function="internal">
        <lane id=":1654525680_8_0" index="0" disallow="tram rail_urban rail rail_electric ship" speed="6.53" length="9.08" shape="283.65,141.47 286.15,141.60 288.09,140.91 289.47,139.40 290.29,137.06"/>
    </edge>
    <edge id=":1654525680_9" function="internal">
        <lane id=":1654525680_9_0" index="0" disallow="tram rail_urban rail rail_electric ship" speed="13.89" length="14.51" shape="283.65,141.47 297.86,144.41"/>
    </edge>
    <edge id=":1654525680_10" function="internal">
        <lane id=":1654525680_10_0" index="0" disallow="tram rail_urban rail rail_electric ship" speed="7.97" length="14.26" shape="283.65,141.47 287.35,142.76 289.73,144.92 290.78,147.96 290.51,151.86"/>
    </edge>
    <edge id=":1654525680_11" function="internal">
        <lane id=":1654525680_11_0" index="0" disallow="tram rail_urban rail rail_electric ship" speed="3.65" length="4.67" shape="283.65,141.47 284.68,142.48 284.91,143.35 284.37,144.05 283.04,144.61"/>
    </edge>
    <edge id=":1654525680_12" function="internal">
        <lane id=":1654525680_12_0" index="0" disallow="tram rail_urban rail rail_electric ship" speed="6.47" length="9.03" shape="287.38,151.19 287.55,148.72 286.89,146.80 285.38,145.43 283.04,144.61"/>
    </edge>
    <edge id=":1654525680_13" function="internal">
        <lane id=":1654525680_13_0" index="0" disallow="tram rail_urban rail rail_electric ship" speed="13.89" length="14.43" shape="287.38,151.19 290.29,137.06"/>
    </edge>
    <edge id=":1654525680_14" function="internal">
        <lane id=":1654525680_14_0" index="0" disallow="tram rail_urban rail rail_electric ship" speed="8.00" length="5.87" shape="287.38,151.19 288.73,147.52 290.07,146.09"/>
    </edge>
    <edge id=":1654525680_15" function="internal">
        <lane id=":1654525680_15_0" index="0" disallow="tram rail_urban rail rail_electric ship" speed="3.65" length="2.34" shape="287.38,151.19 288.42,150.19 289.28,149.96"/>
    </edge>
    <edge id=":1654525680_18" function="internal">
        <lane id=":1654525680_18_0" index="0" disallow="tram rail_urban rail rail_electric ship" speed="8.00" length="8.37" shape="290.07,146.09 290.93,145.16 293.97,144.13 297.86,144.41"/>
    </edge>
    <edge id=":1654525680_19" function="internal">
        <lane id=":1654525680_19_0" index="0" disallow="tram rail_urban rail rail_electric ship" speed="3.65" length="2.34" shape="289.28,149.96 289.98,150.52 290.51,151.86"/>
    </edge>
    <edge id=":1999392089_0" function="internal">
        <lane id=":1999392089_0_0" index="0" allow="delivery bicycle pedestrian" speed="5.56" length="9.27" shape="385.39,293.23 382.65,284.38"/>
    </edge>
    <edge id=":1999392089_1" function="internal">
        <lane id=":1999392089_1_0" index="0" allow="delivery bicycle pedestrian" speed="5.56" length="10.66" shape="385.39,293.23 384.98,290.30 385.64,288.03 387.37,286.41 390.17,285.46"/>
    </edge>
    <edge id=":1999392089_2" function="internal">
        <lane id=":1999392089_2_0" index="0" allow="delivery bicycle pedestrian" speed="3.65" length="4.67" shape="385.39,293.23 385.82,291.86 386.48,291.25 387.36,291.41 388.46,292.34"/>
    </edge>
    <edge id=":1999392089_3" function="internal">
        <lane id=":1999392089_3_0" index="0" allow="delivery bicycle pedestrian" speed="4.94" length="5.12" shape="390.76,288.60 389.41,289.06 388.58,289.84 388.26,290.93 388.46,292.34"/>
    </edge>
    <edge id=":1999392089_4" function="internal">
        <lane id=":1999392089_4_0" index="0" allow="delivery bicycle pedestrian" speed="5.56" length="10.14" shape="390.76,288.60 387.88,288.78 385.57,288.14 383.83,286.67 382.65,284.38"/>
    </edge>
    <edge id=":1999392089_5" function="internal">
        <lane id=":1999392089_5_0" index="0" allow="delivery bicycle pedestrian" speed="3.65" length="4.67" shape="390.76,288.60 389.43,288.04 388.89,287.32 389.14,286.46 390.17,285.46"/>
    </edge>
    <edge id=":1999392089_6" function="internal">
        <lane id=":1999392089_6_0" index="0" allow="delivery bicycle pedestrian" speed="5.48" length="5.47" shape="385.69,283.37 386.31,284.54 387.27,285.27 388.55,285.58 390.17,285.46"/>
    </edge>
    <edge id=":1999392089_7" function="internal">
        <lane id=":1999392089_7_0" index="0" allow="delivery bicycle pedestrian" speed="5.56" length="9.38" shape="385.69,283.37 388.46,292.34"/>
    </edge>
    <edge id=":1999392089_8" function="internal">
        <lane id=":1999392089_8_0" index="0" allow="delivery bicycle pedestrian" speed="3.65" length="4.67" shape="385.69,283.37 385.31,284.76 384.67,285.39 383.79,285.27 382.65,284.38"/>
    </edge>
    <edge id=":1999392126_0" function="internal">
        <lane id=":1999392126_0_0" index="0" allow="delivery bicycle pedestrian" speed="3.65" length="4.67" shape="537.00,322.97 535.99,324.01 535.13,324.25 534.42,323.71 533.85,322.39"/>
    </edge>
    <edge id=":1999392138_0" function="internal">
        <lane id=":1999392138_0_0" index="0" allow="delivery bicycle pedestrian" speed="5.56" length="9.44" shape="541.14,437.82 539.45,447.11"/>
    </edge>
    <edge id=":1999392138_1" function="internal">
        <lane id=":1999392138_1_0" index="0" allow="delivery bicycle pedestrian" speed="5.56" length="10.18" shape="541.14,437.82 540.27,440.46 538.75,442.20 536.60,443.02 533.81,442.92"/>
    </edge>
    <edge id=":1999392138_2" function="internal">
        <lane id=":1999392138_2_0" index="0" allow="delivery bicycle pedestrian" speed="3.65" length="4.67" shape="541.14,437.82 540.14,438.86 539.28,439.12 538.56,438.58 537.98,437.26"/>
    </edge>
    <edge id=":1999392138_3" function="internal">
        <lane id=":1999392138_3_0" index="0" allow="delivery bicycle pedestrian" speed="5.05" length="5.02" shape="534.37,439.77 535.75,439.82 536.81,439.41 537.56,438.56 537.98,437.26"/>
    </edge>
    <edge id=":1999392138_4" function="internal">
        <lane id=":1999392138_4_0" index="0" allow="delivery bicycle pedestrian" speed="5.56" length="10.20" shape="534.37,439.77 537.03,440.64 538.76,442.16 539.57,444.31 539.45,447.11"/>
    </edge>
    <edge id=":1999392138_5" function="internal">
        <lane id=":1999392138_5_0" index="0" allow="delivery bicycle pedestrian" speed="3.65" length="4.67" shape="534.37,439.77 535.41,440.77 535.66,441.62 535.13,442.34 533.81,442.92"/>
    </edge>
    <edge id=":1999392138_6" function="internal">
        <lane id=":1999392138_6_0" index="0" allow="delivery bicycle pedestrian" speed="5.03" length="5.01" shape="536.30,446.52 536.36,445.15 535.96,444.09 535.11,443.35 533.81,442.92"/>
    </edge>
    <edge id=":1999392138_7" function="internal">
        <lane id=":1999392138_7_0" index="0" allow="delivery bicycle pedestrian" speed="5.56" length="9.41" shape="536.30,446.52 537.98,437.26"/>
    </edge>
    <edge id=":1999392138_8" function="internal">
        <lane id=":1999392138_8_0" index="0" allow="delivery bicycle pedestrian" speed="3.65" length="4.67" shape="536.30,446.52 537.31,445.49 538.17,445.24 538.88,445.78 539.45,447.11"/>
    </edge>
    <edge id=":1999392142_0" function="internal">
        <lane id=":1999392142_0_0" index="0" allow="delivery bicycle pedestrian" speed="5.10" length="5.13" shape="504.95,549.67 503.44,549.59 502.29,549.94 501.50,550.73 501.06,551.96"/>
    </edge>
    <edge id=":1999392142_1" function="internal">
        <lane id=":1999392142_1_0" index="0" allow="delivery bicycle pedestrian" speed="3.65" length="4.67" shape="504.95,549.67 503.90,548.67 503.65,547.81 504.18,547.10 505.50,546.52"/>
    </edge>
    <edge id=":1999392142_2" function="internal">
        <lane id=":1999392142_2_0" index="0" allow="delivery bicycle pedestrian" speed="5.04" length="5.00" shape="502.99,542.92 502.94,544.29 503.35,545.35 504.20,546.09 505.50,546.52"/>
    </edge>
    <edge id=":1999392142_3" function="internal">
        <lane id=":1999392142_3_0" index="0" allow="delivery bicycle pedestrian" speed="5.56" length="9.24" shape="502.99,542.92 501.06,551.96"/>
    </edge>
    <edge id=":1999441020_0" function="internal">
        <lane id=":1999441020_0_0" index="0" allow="delivery bicycle pedestrian" speed="5.56" length="9.30" shape="478.64,674.74 476.99,683.90"/>
    </edge>
    <edge id=":1999441020_1" function="internal">
        <lane id=":1999441020_1_0" index="0" allow="delivery bicycle pedestrian" speed="5.56" length="7.75" shape="478.64,674.74 477.88,677.40 476.90,679.20 475.71,680.16 474.31,680.27"/>
    </edge>
    <edge id=":1999441020_2" function="internal">
        <lane id=":1999441020_2_0" index="0" allow="delivery bicycle pedestrian" speed="5.56" length="7.72" shape="474.97,677.14 476.19,677.79 476.94,679.13 477.21,681.17 476.99,683.90"/>
    </edge>
    <edge id=":1999441020_3" function="internal">
        <lane id=":1999441020_3_0" index="0" allow="delivery bicycle pedestrian" speed="3.65" length="4.67" shape="474.97,677.14 475.98,678.16 476.20,679.03 475.65,679.73 474.31,680.27"/>
    </edge>
    <edge id=":1999441021_0" function="internal">
        <lane id=":1999441021_0_0" index="0" allow="delivery bicycle pedestrian" speed="3.65" length="4.67" shape="456.99,685.45 458.37,685.05 459.25,685.25 459.60,686.07 459.45,687.51"/>
    </edge>
    <edge id=":1999441025_0" function="internal">
        <lane id=":1999441025_0_0" index="0" disallow="tram rail_urban rail rail_electric ship" speed="13.89" length="9.63" shape="448.07,732.70 438.83,729.97"/>
    </edge>
    <edge id=":1999441025_1" function="internal">
        <lane id=":1999441025_1_0" index="0" allow="delivery bicycle pedestrian" speed="7.07" length="4.99" shape="448.07,732.70 445.61,731.61 444.05,729.91"/>
    </edge>
    <edge id=":1999441025_2" function="internal">
        <lane id=":1999441025_2_0" index="0" disallow="tram rail_urban rail rail_electric ship" speed="3.65" length="2.34" shape="448.07,732.70 447.12,731.61 446.94,730.73"/>
    </edge>
    <edge id=":1999441025_9" function="internal">
        <lane id=":1999441025_9_0" index="0" allow="delivery bicycle pedestrian" speed="7.07" length="5.32" shape="444.05,729.91 443.37,727.61 443.57,724.69"/>
    </edge>
    <edge id=":1999441025_10" function="internal">
        <lane id=":1999441025_10_0" index="0" disallow="tram rail_urban rail rail_electric ship" speed="3.65" length="2.34" shape="446.94,730.73 447.53,730.07 448.90,729.61"/>
    </edge>
    <edge id=":1999441025_3" function="internal">
        <lane id=":1999441025_3_0" index="0" disallow="tram rail_urban rail rail_electric ship" speed="5.32" length="5.40" shape="446.71,725.33 446.58,726.90 446.91,728.14 447.68,729.05 448.90,729.61"/>
    </edge>
    <edge id=":1999441025_4" function="internal">
        <lane id=":1999441025_4_0" index="0" disallow="tram rail_urban rail rail_electric ship" speed="6.78" length="10.71" shape="446.71,725.33 445.71,728.13 444.06,729.84 441.77,730.46 438.83,729.97"/>
    </edge>
    <edge id=":1999441025_5" function="internal">
        <lane id=":1999441025_5_0" index="0" allow="delivery bicycle pedestrian" speed="3.65" length="4.67" shape="446.71,725.33 445.69,726.34 444.83,726.58 444.12,726.03 443.57,724.69"/>
    </edge>
    <edge id=":1999441025_6" function="internal">
        <lane id=":1999441025_6_0" index="0" allow="delivery bicycle pedestrian" speed="4.93" length="5.13" shape="439.80,726.92 441.21,727.15 442.30,726.86 443.09,726.04 443.57,724.69"/>
    </edge>
    <edge id=":1999441025_7" function="internal">
        <lane id=":1999441025_7_0" index="0" disallow="tram rail_urban rail rail_electric ship" speed="13.89" length="9.49" shape="439.80,726.92 448.90,729.61"/>
    </edge>
    <edge id=":1999441025_8" function="internal">
        <lane id=":1999441025_8_0" index="0" disallow="tram rail_urban rail rail_electric ship" speed="3.65" length="2.34" shape="439.80,726.92 440.70,728.05 440.84,728.93"/>
    </edge>
    <edge id=":1999441025_11" function="internal">
        <lane id=":1999441025_11_0" index="0" disallow="tram rail_urban rail rail_electric ship" speed="3.65" length="2.34" shape="440.84,728.93 440.21,729.57 438.83,729.97"/>
    </edge>
    <edge id=":2507687789_0" function="internal">
        <lane id=":2507687789_0_0" index="0" allow="delivery bicycle pedestrian" speed="5.98" length="6.83" shape="346.63,73.49 345.95,71.60 344.95,70.31 343.61,69.62 341.93,69.54"/>
    </edge>
    <edge id=":2507687789_1" function="internal">
        <lane id=":2507687789_1_0" index="0" disallow="tram rail_urban rail rail_electric ship" speed="13.89" length="11.05" shape="346.63,73.49 344.05,62.75"/>
    </edge>
    <edge id=":2507687789_2" function="internal">
        <lane id=":2507687789_2_0" index="0" allow="delivery bicycle pedestrian" speed="6.68" length="4.18" shape="346.63,73.49 346.33,70.07 346.61,69.39"/>
    </edge>
    <edge id=":2507687789_3" function="internal">
        <lane id=":2507687789_3_0" index="0" disallow="tram rail_urban rail rail_electric ship" speed="3.65" length="2.34" shape="346.63,73.49 347.14,72.15 347.83,71.58"/>
    </edge>
    <edge id=":2507687789_16" function="internal">
        <lane id=":2507687789_16_0" index="0" allow="delivery bicycle pedestrian" speed="6.68" length="7.75" shape="346.61,69.39 347.29,67.73 349.48,66.48 352.91,66.32"/>
    </edge>
    <edge id=":2507687789_17" function="internal">
        <lane id=":2507687789_17_0" index="0" disallow="tram rail_urban rail rail_electric ship" speed="3.65" length="2.34" shape="347.83,71.58 348.70,71.79 349.74,72.78"/>
    </edge>
    <edge id=":2507687789_4" function="internal">
        <lane id=":2507687789_4_0" index="0" disallow="tram rail_urban rail rail_electric ship" speed="4.77" length="5.44" shape="352.61,69.51 351.05,69.58 350.05,70.15 349.61,71.22 349.74,72.78"/>
    </edge>
    <edge id=":2507687789_5" function="internal">
        <lane id=":2507687789_5_0" index="0" allow="delivery bicycle pedestrian" speed="5.56" length="10.72" shape="352.61,69.51 349.54,69.23 347.27,69.13 344.99,69.22 341.93,69.54"/>
    </edge>
    <edge id=":2507687789_6" function="internal">
        <lane id=":2507687789_6_0" index="0" disallow="tram rail_urban rail rail_electric ship" speed="8.42" length="11.70" shape="352.61,69.51 349.44,68.83 346.96,67.48 345.16,65.46 344.05,62.75"/>
    </edge>
    <edge id=":2507687789_7" function="internal">
        <lane id=":2507687789_7_0" index="0" allow="delivery bicycle pedestrian" speed="3.65" length="4.67" shape="352.61,69.51 351.49,68.60 351.17,67.76 351.64,67.00 352.91,66.32"/>
    </edge>
    <edge id=":2507687789_8" function="internal">
        <lane id=":2507687789_8_0" index="0" allow="delivery bicycle pedestrian" speed="6.96" length="7.74" shape="347.15,61.97 347.88,63.70 349.08,65.01 350.76,65.88 352.91,66.32"/>
    </edge>
    <edge id=":2507687789_9" function="internal">
        <lane id=":2507687789_9_0" index="0" disallow="tram rail_urban rail rail_electric ship" speed="13.89" length="11.11" shape="347.15,61.97 349.74,72.78"/>
    </edge>
    <edge id=":2507687789_10" function="internal">
        <lane id=":2507687789_10_0" index="0" allow="delivery bicycle pedestrian" speed="6.77" length="4.08" shape="347.15,61.97 347.46,64.98 347.13,65.98"/>
    </edge>
    <edge id=":2507687789_11" function="internal">
        <lane id=":2507687789_11_0" index="0" disallow="tram rail_urban rail rail_electric ship" speed="3.65" length="2.34" shape="347.15,61.97 346.67,63.33 345.99,63.91"/>
    </edge>
    <edge id=":2507687789_18" function="internal">
        <lane id=":2507687789_18_0" index="0" allow="delivery bicycle pedestrian" speed="6.77" length="6.75" shape="347.13,65.98 346.70,67.24 344.85,68.76 341.93,69.54"/>
    </edge>
    <edge id=":2507687789_19" function="internal">
        <lane id=":2507687789_19_0" index="0" disallow="tram rail_urban rail rail_electric ship" speed="3.65" length="2.34" shape="345.99,63.91 345.12,63.72 344.05,62.75"/>
    </edge>
    <edge id=":2507687789_12" function="internal">
        <lane id=":2507687789_12_0" index="0" disallow="tram rail_urban rail rail_electric ship" speed="4.91" length="5.16" shape="341.56,66.36 342.95,65.99 343.83,65.27 344.20,64.19 344.05,62.75"/>
    </edge>
    <edge id=":2507687789_13" function="internal">
        <lane id=":2507687789_13_0" index="0" allow="delivery bicycle pedestrian" speed="5.56" length="11.39" shape="341.56,66.36 344.73,66.04 347.23,65.95 349.74,66.05 352.91,66.32"/>
    </edge>
    <edge id=":2507687789_14" function="internal">
        <lane id=":2507687789_14_0" index="0" disallow="tram rail_urban rail rail_electric ship" speed="7.59" length="11.59" shape="341.56,66.36 344.52,66.48 346.87,67.58 348.61,69.68 349.74,72.78"/>
    </edge>
    <edge id=":2507687789_15" function="internal">
        <lane id=":2507687789_15_0" index="0" allow="delivery bicycle pedestrian" speed="3.65" length="4.67" shape="341.56,66.36 342.84,67.01 343.33,67.76 343.03,68.60 341.93,69.54"/>
    </edge>
    <edge id=":2507687790_0" function="internal">
        <lane id=":2507687790_0_0" index="0" disallow="tram rail_urban rail rail_electric ship" speed="7.33" length="8.58" shape="310.81,74.09 308.62,74.71 306.91,75.82 305.69,77.44 304.96,79.55"/>
    </edge>
    <edge id=":2507687790_1" function="internal">
        <lane id=":2507687790_1_0" index="0" allow="delivery bicycle pedestrian" speed="5.56" length="12.04" shape="310.81,74.09 298.88,75.71"/>
    </edge>
    <edge id=":2507687790_2" function="internal">
        <lane id=":2507687790_2_0" index="0" disallow="tram rail_urban rail rail_electric ship" speed="6.68" length="12.08" shape="310.81,74.09 307.31,74.12 305.05,72.97 304.01,70.65 304.20,67.16"/>
    </edge>
    <edge id=":2507687790_3" function="internal">
        <lane id=":2507687790_3_0" index="0" allow="delivery bicycle pedestrian" speed="3.65" length="4.67" shape="310.81,74.09 309.51,73.48 308.99,72.75 309.27,71.90 310.34,70.93"/>
    </edge>
    <edge id=":2507687790_4" function="internal">
        <lane id=":2507687790_4_0" index="0" allow="delivery bicycle pedestrian" speed="4.76" length="5.48" shape="307.34,67.78 307.25,69.37 307.72,70.42 308.75,70.94 310.34,70.93"/>
    </edge>
    <edge id=":2507687790_5" function="internal">
        <lane id=":2507687790_5_0" index="0" disallow="tram rail_urban rail rail_electric ship" speed="13.89" length="12.01" shape="307.34,67.78 304.96,79.55"/>
    </edge>
    <edge id=":2507687790_6" function="internal">
        <lane id=":2507687790_6_0" index="0" allow="delivery bicycle pedestrian" speed="8.58" length="2.70" shape="307.34,67.78 306.48,70.35"/>
    </edge>
    <edge id=":2507687790_7" function="internal">
        <lane id=":2507687790_7_0" index="0" disallow="tram rail_urban rail rail_electric ship" speed="3.65" length="2.34" shape="307.34,67.78 306.32,68.80 305.46,69.04"/>
    </edge>
    <edge id=":2507687790_16" function="internal">
        <lane id=":2507687790_16_0" index="0" allow="delivery bicycle pedestrian" speed="8.58" length="9.78" shape="306.48,70.35 306.29,70.93 304.52,73.30 302.06,74.89 298.88,75.71"/>
    </edge>
    <edge id=":2507687790_17" function="internal">
        <lane id=":2507687790_17_0" index="0" disallow="tram rail_urban rail rail_electric ship" speed="3.65" length="2.34" shape="305.46,69.04 304.75,68.49 304.20,67.16"/>
    </edge>
    <edge id=":2507687790_8" function="internal">
        <lane id=":2507687790_8_0" index="0" disallow="tram rail_urban rail rail_electric ship" speed="7.16" length="8.45" shape="298.49,72.53 300.63,71.98 302.30,70.90 303.49,69.29 304.20,67.16"/>
    </edge>
    <edge id=":2507687790_9" function="internal">
        <lane id=":2507687790_9_0" index="0" allow="delivery bicycle pedestrian" speed="5.56" length="11.96" shape="298.49,72.53 310.34,70.93"/>
    </edge>
    <edge id=":2507687790_10" function="internal">
        <lane id=":2507687790_10_0" index="0" disallow="tram rail_urban rail rail_electric ship" speed="6.68" length="11.95" shape="298.49,72.53 301.94,72.60 304.17,73.79 305.18,76.11 304.96,79.55"/>
    </edge>
    <edge id=":2507687790_11" function="internal">
        <lane id=":2507687790_11_0" index="0" allow="delivery bicycle pedestrian" speed="3.65" length="4.67" shape="298.49,72.53 299.78,73.18 300.27,73.93 299.97,74.77 298.88,75.71"/>
    </edge>
    <edge id=":2507687790_12" function="internal">
        <lane id=":2507687790_12_0" index="0" allow="delivery bicycle pedestrian" speed="4.77" length="5.45" shape="301.83,78.91 301.92,77.34 301.47,76.28 300.45,75.74 298.88,75.71"/>
    </edge>
    <edge id=":2507687790_13" function="internal">
        <lane id=":2507687790_13_0" index="0" disallow="tram rail_urban rail rail_electric ship" speed="13.89" length="11.99" shape="301.83,78.91 304.20,67.16"/>
    </edge>
    <edge id=":2507687790_14" function="internal">
        <lane id=":2507687790_14_0" index="0" allow="delivery bicycle pedestrian" speed="8.73" length="2.68" shape="301.83,78.91 302.70,76.38"/>
    </edge>
    <edge id=":2507687790_15" function="internal">
        <lane id=":2507687790_15_0" index="0" disallow="tram rail_urban rail rail_electric ship" speed="3.65" length="2.34" shape="301.83,78.91 302.85,77.89 303.72,77.66"/>
    </edge>
    <edge id=":2507687790_18" function="internal">
        <lane id=":2507687790_18_0" index="0" allow="delivery bicycle pedestrian" speed="8.73" length="9.83" shape="302.70,76.38 302.89,75.81 304.67,73.45 307.15,71.82 310.34,70.93"/>
    </edge>
    <edge id=":2507687790_19" function="internal">
        <lane id=":2507687790_19_0" index="0" disallow="tram rail_urban rail rail_electric ship" speed="3.65" length="2.34" shape="303.72,77.66 304.42,78.22 304.96,79.55"/>
    </edge>
    <edge id=":2507687792_0" function="internal">