<?xml version="1.0" encoding="UTF-8"?>

<!-- generated on Thu Mar 26 23:14:47 2020 by Eclipse SUMO netconvert Version 1.2.0
<configuration xmlns:xsi="http://www.w3.org/2001/XMLSchema-instance" xsi:noNamespaceSchemaLocation="http://sumo.dlr.de/xsd/netconvertConfiguration.xsd">

    <input>
        <osm-files value="map.osm"/>
    </input>

    <output>
        <output-file value="map.net.xml"/>
    </output>

    <projection>
        <proj.utm value="true"/>
    </projection>

    <edge_removal>
        <keep-edges.by-vclass value="delivery"/>
    </edge_removal>

</configuration>
-->

<net version="1.1" junctionCornerDetail="5" limitTurnSpeed="5.50" xmlns:xsi="http://www.w3.org/2001/XMLSchema-instance" xsi:noNamespaceSchemaLocation="http://sumo.dlr.de/xsd/net_file.xsd">

    <location netOffset="-353531.61,-5259102.36" convBoundary="0.00,0.00,629.78,991.23" origBoundary="19.053568,47.468478,19.064846,47.483995" projParameter="+proj=utm +zone=34 +ellps=WGS84 +datum=WGS84 +units=m +no_defs"/>

    <type id="highway.bridleway" priority="1" numLanes="1" speed="2.78" allow="pedestrian" oneway="1" width="2.00"/>
    <type id="highway.bus_guideway" priority="1" numLanes="1" speed="27.78" allow="bus" oneway="1"/>
    <type id="highway.cycleway" priority="1" numLanes="1" speed="8.33" allow="bicycle" oneway="0" width="1.00"/>
    <type id="highway.footway" priority="1" numLanes="1" speed="2.78" allow="pedestrian" oneway="1" width="2.00"/>
    <type id="highway.ford" priority="1" numLanes="1" speed="2.78" allow="army" oneway="0"/>
    <type id="highway.living_street" priority="2" numLanes="1" speed="2.78" disallow="tram rail_urban rail rail_electric ship" oneway="0"/>
    <type id="highway.motorway" priority="14" numLanes="2" speed="39.44" allow="private emergency authority army vip passenger hov taxi bus coach delivery truck trailer motorcycle evehicle custom1 custom2" oneway="1"/>
    <type id="highway.motorway_link" priority="9" numLanes="1" speed="22.22" allow="private emergency authority army vip passenger hov taxi bus coach delivery truck trailer motorcycle evehicle custom1 custom2" oneway="1"/>
    <type id="highway.path" priority="1" numLanes="1" speed="2.78" allow="bicycle pedestrian" oneway="1" width="2.00"/>
    <type id="highway.pedestrian" priority="1" numLanes="1" speed="2.78" allow="pedestrian" oneway="1" width="2.00"/>
    <type id="highway.primary" priority="12" numLanes="2" speed="27.78" disallow="tram rail_urban rail rail_electric ship" oneway="0"/>
    <type id="highway.primary_link" priority="7" numLanes="1" speed="22.22" disallow="tram rail_urban rail rail_electric ship" oneway="0"/>
    <type id="highway.raceway" priority="15" numLanes="2" speed="83.33" allow="vip" oneway="0"/>
    <type id="highway.residential" priority="3" numLanes="1" speed="13.89" disallow="tram rail_urban rail rail_electric ship" oneway="0"/>
    <type id="highway.secondary" priority="11" numLanes="2" speed="27.78" disallow="tram rail_urban rail rail_electric ship" oneway="0"/>
    <type id="highway.secondary_link" priority="6" numLanes="1" speed="22.22" disallow="tram rail_urban rail rail_electric ship" oneway="0"/>
    <type id="highway.service" priority="1" numLanes="1" speed="5.56" allow="delivery bicycle pedestrian" oneway="0"/>
    <type id="highway.stairs" priority="1" numLanes="1" speed="1.39" allow="pedestrian" oneway="1" width="2.00"/>
    <type id="highway.step" priority="1" numLanes="1" speed="1.39" allow="pedestrian" oneway="1" width="2.00"/>
    <type id="highway.steps" priority="1" numLanes="1" speed="1.39" allow="pedestrian" oneway="1" width="2.00"/>
    <type id="highway.tertiary" priority="10" numLanes="1" speed="22.22" disallow="tram rail_urban rail rail_electric ship" oneway="0"/>
    <type id="highway.tertiary_link" priority="5" numLanes="1" speed="22.22" disallow="tram rail_urban rail rail_electric ship" oneway="0"/>
    <type id="highway.track" priority="1" numLanes="1" speed="5.56" disallow="tram rail_urban rail rail_electric ship" oneway="0"/>
    <type id="highway.trunk" priority="13" numLanes="2" speed="27.78" disallow="tram rail_urban rail rail_electric bicycle pedestrian ship" oneway="0"/>
    <type id="highway.trunk_link" priority="8" numLanes="1" speed="22.22" disallow="tram rail_urban rail rail_electric bicycle pedestrian ship" oneway="0"/>
    <type id="highway.unclassified" priority="4" numLanes="1" speed="13.89" disallow="tram rail_urban rail rail_electric ship" oneway="0"/>
    <type id="highway.unsurfaced" priority="1" numLanes="1" speed="8.33" disallow="tram rail_urban rail rail_electric ship" oneway="0"/>
    <type id="railway.light_rail" priority="19" numLanes="1" speed="27.78" allow="rail_urban" oneway="1"/>
    <type id="railway.preserved" priority="16" numLanes="1" speed="27.78" allow="rail" oneway="1"/>
    <type id="railway.rail" priority="20" numLanes="1" speed="83.33" allow="rail rail_electric" oneway="1"/>
    <type id="railway.subway" priority="18" numLanes="1" speed="27.78" allow="rail_urban" oneway="1"/>
    <type id="railway.tram" priority="17" numLanes="1" speed="13.89" allow="tram" oneway="1"/>

    <edge id=":1178038244_0" function="internal">
        <lane id=":1178038244_0_0" index="0" disallow="tram rail_urban rail rail_electric ship" speed="4.97" length="5.08" shape="379.75,274.57 379.16,273.30 378.30,272.55 377.19,272.33 375.82,272.63"/>
    </edge>
    <edge id=":1178038244_1" function="internal">
        <lane id=":1178038244_1_0" index="0" disallow="tram rail_urban rail rail_electric ship" speed="6.68" length="9.75" shape="379.75,274.57 379.25,271.73 379.67,269.49 381.00,267.85 383.25,266.80"/>
    </edge>
    <edge id=":1178038244_2" function="internal">
        <lane id=":1178038244_2_0" index="0" allow="delivery bicycle pedestrian" speed="3.65" length="4.67" shape="379.75,274.57 380.17,273.19 380.82,272.57 381.70,272.72 382.81,273.63"/>
    </edge>
    <edge id=":1178038244_3" function="internal">
        <lane id=":1178038244_3_0" index="0" allow="delivery bicycle pedestrian" speed="4.79" length="4.51" shape="384.10,269.88 383.18,270.35 382.66,271.13 382.54,272.22 382.81,273.63"/>
    </edge>
    <edge id=":1178038244_4" function="internal">
        <lane id=":1178038244_4_0" index="0" disallow="tram rail_urban rail rail_electric ship" speed="13.89" length="8.74" shape="384.10,269.88 381.61,270.59 379.91,271.12 378.24,271.72 375.82,272.63"/>
    </edge>
    <edge id=":1178038244_5" function="internal">
        <lane id=":1178038244_5_0" index="0" disallow="tram rail_urban rail rail_electric ship" speed="3.65" length="2.34" shape="384.10,269.88 382.73,269.43 382.14,268.77"/>
    </edge>
    <edge id=":1178038244_9" function="internal">
        <lane id=":1178038244_9_0" index="0" disallow="tram rail_urban rail rail_electric ship" speed="3.65" length="2.34" shape="382.14,268.77 382.31,267.89 383.25,266.80"/>
    </edge>
    <edge id=":1178038244_6" function="internal">
        <lane id=":1178038244_6_0" index="0" disallow="tram rail_urban rail rail_electric ship" speed="13.89" length="9.03" shape="374.69,269.64 377.20,268.69 378.92,268.07 380.67,267.53 383.25,266.80"/>
    </edge>
    <edge id=":1178038244_7" function="internal">
        <lane id=":1178038244_7_0" index="0" allow="delivery bicycle pedestrian" speed="6.81" length="5.24" shape="374.69,269.64 377.52,269.01 379.82,269.47"/>
    </edge>
    <edge id=":1178038244_8" function="internal">
        <lane id=":1178038244_8_0" index="0" disallow="tram rail_urban rail rail_electric ship" speed="3.65" length="2.34" shape="374.69,269.64 376.09,269.96 376.75,270.57"/>
    </edge>
    <edge id=":1178038244_10" function="internal">
        <lane id=":1178038244_10_0" index="0" allow="delivery bicycle pedestrian" speed="6.81" length="5.24" shape="379.82,269.47 381.58,271.01 382.81,273.63"/>
    </edge>
    <edge id=":1178038244_11" function="internal">
        <lane id=":1178038244_11_0" index="0" disallow="tram rail_urban rail rail_electric ship" speed="3.65" length="2.34" shape="376.75,270.57 376.66,271.46 375.82,272.63"/>
    </edge>
    <edge id=":1178038257_0" function="internal">
        <lane id=":1178038257_0_0" index="0" allow="delivery bicycle pedestrian" speed="4.42" length="6.00" shape="538.41,292.68 536.42,294.00 535.54,295.04 535.78,295.81 537.14,296.29"/>
    </edge>
    <edge id=":1178038257_1" function="internal">
        <lane id=":1178038257_1_0" index="0" allow="delivery bicycle pedestrian" speed="5.56" length="9.32" shape="538.41,292.68 536.91,293.87 535.67,295.58 534.68,297.82 533.96,300.57"/>
    </edge>
    <edge id=":1178038257_2" function="internal">
        <lane id=":1178038257_2_0" index="0" allow="delivery bicycle pedestrian" speed="5.56" length="11.08" shape="538.41,292.68 535.70,294.42 533.60,295.77 531.39,296.48 528.35,296.33"/>
    </edge>
    <edge id=":1178038257_3" function="internal">
        <lane id=":1178038257_3_0" index="0" allow="delivery bicycle pedestrian" speed="5.56" length="8.84" shape="528.92,293.18 531.42,293.89 533.03,294.74 534.64,295.59 537.14,296.29"/>
    </edge>
    <edge id=":1178038257_4" function="internal">
        <lane id=":1178038257_4_0" index="0" allow="delivery bicycle pedestrian" speed="5.56" length="10.24" shape="528.92,293.18 531.59,294.07 533.32,295.60 534.11,297.76 533.96,300.57"/>
    </edge>
    <edge id=":1178038257_5" function="internal">
        <lane id=":1178038257_5_0" index="0" allow="delivery bicycle pedestrian" speed="3.65" length="4.67" shape="528.92,293.18 529.96,294.18 530.21,295.04 529.67,295.75 528.35,296.33"/>
    </edge>
    <edge id=":1178038257_6" function="internal">
        <lane id=":1178038257_6_0" index="0" allow="delivery bicycle pedestrian" speed="5.02" length="5.02" shape="530.82,299.95 530.89,298.57 530.50,297.51 529.66,296.76 528.35,296.33"/>
    </edge>
    <edge id=":1178038257_7" function="internal">
        <lane id=":1178038257_7_0" index="0" allow="delivery bicycle pedestrian" speed="5.56" length="8.29" shape="530.82,299.95 531.56,297.98 532.86,296.72 534.72,296.16 537.14,296.29"/>
    </edge>
    <edge id=":1178038257_8" function="internal">
        <lane id=":1178038257_8_0" index="0" allow="delivery bicycle pedestrian" speed="3.65" length="4.67" shape="530.82,299.95 531.83,298.93 532.70,298.69 533.40,299.24 533.96,300.57"/>
    </edge>
    <edge id=":1308241841_0" function="internal">
        <lane id=":1308241841_0_0" index="0" disallow="tram rail_urban rail rail_electric ship" speed="3.65" length="4.67" shape="478.50,737.61 479.45,738.69 479.63,739.57 479.03,740.24 477.67,740.69"/>
    </edge>
    <edge id=":1654525680_0" function="internal">
        <lane id=":1654525680_0_0" index="0" disallow="tram rail_urban rail rail_electric ship" speed="6.51" length="9.07" shape="297.17,147.54 294.70,147.36 292.77,148.02 291.37,149.52 290.51,151.86"/>
    </edge>
    <edge id=":1654525680_1" function="internal">
        <lane id=":1654525680_1_0" index="0" disallow="tram rail_urban rail rail_electric ship" speed="13.89" length="14.43" shape="297.17,147.54 283.04,144.61"/>
    </edge>
    <edge id=":1654525680_2" function="internal">
        <lane id=":1654525680_2_0" index="0" disallow="tram rail_urban rail rail_electric ship" speed="8.07" length="14.23" shape="297.17,147.54 293.52,146.18 291.16,143.98 290.08,140.94 290.29,137.06"/>
    </edge>
    <edge id=":1654525680_3" function="internal">
        <lane id=":1654525680_3_0" index="0" disallow="tram rail_urban rail rail_electric ship" speed="3.65" length="4.67" shape="297.17,147.54 296.17,146.50 295.95,145.63 296.51,144.94 297.86,144.41"/>
    </edge>
    <edge id=":1654525680_4" function="internal">
        <lane id=":1654525680_4_0" index="0" disallow="tram rail_urban rail rail_electric ship" speed="6.59" length="9.14" shape="293.43,137.68 293.30,140.17 293.99,142.13 295.51,143.54 297.86,144.41"/>
    </edge>
    <edge id=":1654525680_5" function="internal">
        <lane id=":1654525680_5_0" index="0" disallow="tram rail_urban rail rail_electric ship" speed="13.89" length="14.48" shape="293.43,137.68 290.51,151.86"/>
    </edge>
    <edge id=":1654525680_6" function="internal">
        <lane id=":1654525680_6_0" index="0" disallow="tram rail_urban rail rail_electric ship" speed="8.02" length="6.00" shape="293.43,137.68 292.14,141.35 290.72,142.91"/>
    </edge>
    <edge id=":1654525680_7" function="internal">
        <lane id=":1654525680_7_0" index="0" disallow="tram rail_urban rail rail_electric ship" speed="3.65" length="2.34" shape="293.43,137.68 292.41,138.71 291.55,138.94"/>
    </edge>
    <edge id=":1654525680_16" function="internal">
        <lane id=":1654525680_16_0" index="0" disallow="tram rail_urban rail rail_electric ship" speed="8.02" length="8.24" shape="290.72,142.91 289.98,143.73 286.95,144.81 283.04,144.61"/>
    </edge>
    <edge id=":1654525680_17" function="internal">
        <lane id=":1654525680_17_0" index="0" disallow="tram rail_urban rail rail_electric ship" speed="3.65" length="2.34" shape="291.55,138.94 290.84,138.40 290.29,137.06"/>
    </edge>
    <edge id=":1654525680_8" function="internal">
        <lane id=":1654525680_8_0" index="0" disallow="tram rail_urban rail rail_electric ship" speed="6.53" length="9.08" shape="283.65,141.47 286.15,141.60 288.09,140.91 289.47,139.40 290.29,137.06"/>
    </edge>
    <edge id=":1654525680_9" function="internal">
        <lane id=":1654525680_9_0" index="0" disallow="tram rail_urban rail rail_electric ship" speed="13.89" length="14.51" shape="283.65,141.47 297.86,144.41"/>
    </edge>
    <edge id=":1654525680_10" function="internal">
        <lane id=":1654525680_10_0" index="0" disallow="tram rail_urban rail rail_electric ship" speed="7.97" length="14.26" shape="283.65,141.47 287.35,142.76 289.73,144.92 290.78,147.96 290.51,151.86"/>
    </edge>
    <edge id=":1654525680_11" function="internal">
        <lane id=":1654525680_11_0" index="0" disallow="tram rail_urban rail rail_electric ship" speed="3.65" length="4.67" shape="283.65,141.47 284.68,142.48 284.91,143.35 284.37,144.05 283.04,144.61"/>
    </edge>
    <edge id=":1654525680_12" function="internal">
        <lane id=":1654525680_12_0" index="0" disallow="tram rail_urban rail rail_electric ship" speed="6.47" length="9.03" shape="287.38,151.19 287.55,148.72 286.89,146.80 285.38,145.43 283.04,144.61"/>
    </edge>
    <edge id=":1654525680_13" function="internal">
        <lane id=":1654525680_13_0" index="0" disallow="tram rail_urban rail rail_electric ship" speed="13.89" length="14.43" shape="287.38,151.19 290.29,137.06"/>
    </edge>
    <edge id=":1654525680_14" function="internal">
        <lane id=":1654525680_14_0" index="0" disallow="tram rail_urban rail rail_electric ship" speed="8.00" length="5.87" shape="287.38,151.19 288.73,147.52 290.07,146.09"/>
    </edge>
    <edge id=":1654525680_15" function="internal">
        <lane id=":1654525680_15_0" index="0" disallow="tram rail_urban rail rail_electric ship" speed="3.65" length="2.34" shape="287.38,151.19 288.42,150.19 289.28,149.96"/>
    </edge>
    <edge id=":1654525680_18" function="internal">
        <lane id=":1654525680_18_0" index="0" disallow="tram rail_urban rail rail_electric ship" speed="8.00" length="8.37" shape="290.07,146.09 290.93,145.16 293.97,144.13 297.86,144.41"/>
    </edge>
    <edge id=":1654525680_19" function="internal">
        <lane id=":1654525680_19_0" index="0" disallow="tram rail_urban rail rail_electric ship" speed="3.65" length="2.34" shape="289.28,149.96 289.98,150.52 290.51,151.86"/>
    </edge>
    <edge id=":1903761245_0" function="internal">
        <lane id=":1903761245_0_0" index="0" disallow="tram rail_urban rail rail_electric ship" speed="13.89" length="13.00" shape="397.01,267.13 393.61,267.69 390.61,268.27 387.62,268.95 384.30,269.83"/>
    </edge>
    <edge id=":1903761245_1" function="internal">
        <lane id=":1903761245_1_0" index="0" disallow="tram rail_urban rail rail_electric ship" speed="7.40" length="6.89" shape="397.01,267.13 393.35,267.40 390.56,266.93 390.22,266.72"/>
    </edge>
    <edge id=":1903761245_2" function="internal">
        <lane id=":1903761245_2_0" index="0" disallow="tram rail_urban rail rail_electric ship" speed="3.65" length="2.34" shape="397.01,267.13 395.70,266.52 395.18,265.79"/>
    </edge>
    <edge id=":1903761245_9" function="internal">
        <lane id=":1903761245_9_0" index="0" disallow="tram rail_urban rail rail_electric ship" speed="7.40" length="4.06" shape="390.22,266.72 388.64,265.74 387.58,263.81"/>
    </edge>
    <edge id=":1903761245_10" function="internal">
        <lane id=":1903761245_10_0" index="0" disallow="tram rail_urban rail rail_electric ship" speed="3.65" length="2.34" shape="395.18,265.79 395.46,264.94 396.52,263.97"/>
    </edge>
    <edge id=":1903761245_3" function="internal">
        <lane id=":1903761245_3_0" index="0" disallow="tram rail_urban rail rail_electric ship" speed="6.73" length="8.88" shape="389.78,259.71 390.72,261.88 392.16,263.32 394.09,264.01 396.52,263.97"/>
    </edge>
    <edge id=":1903761245_4" function="internal">
        <lane id=":1903761245_4_0" index="0" disallow="tram rail_urban rail rail_electric ship" speed="7.72" length="13.11" shape="389.78,259.71 390.26,263.34 389.50,266.24 387.52,268.40 384.30,269.83"/>
    </edge>
    <edge id=":1903761245_5" function="internal">
        <lane id=":1903761245_5_0" index="0" disallow="tram rail_urban rail rail_electric ship" speed="4.17" length="6.79" shape="389.78,259.71 390.77,261.56 390.73,262.86 389.67,263.61 387.58,263.81"/>
    </edge>
    <edge id=":1903761245_6" function="internal">
        <lane id=":1903761245_6_0" index="0" disallow="tram rail_urban rail rail_electric ship" speed="5.24" length="5.47" shape="383.44,266.75 385.43,266.09 386.78,265.38 387.50,264.62 387.58,263.81"/>
    </edge>
    <edge id=":1903761245_7" function="internal">
        <lane id=":1903761245_7_0" index="0" disallow="tram rail_urban rail rail_electric ship" speed="13.89" length="13.38" shape="383.44,266.75 386.82,265.86 389.94,265.14 393.07,264.54 396.52,263.97"/>
    </edge>
    <edge id=":1903761245_8" function="internal">
        <lane id=":1903761245_8_0" index="0" disallow="tram rail_urban rail rail_electric ship" speed="3.65" length="2.34" shape="383.44,266.75 384.81,267.20 385.41,267.86"/>
    </edge>
    <edge id=":1903761245_11" function="internal">
        <lane id=":1903761245_11_0" index="0" disallow="tram rail_urban rail rail_electric ship" speed="3.65" length="2.34" shape="385.41,267.86 385.24,268.74 384.30,269.83"/>
    </edge>
    <edge id=":1903761275_0" function="internal">
        <lane id=":1903761275_0_0" index="0" disallow="tram rail_urban rail rail_electric ship" speed="6.55" length="9.07" shape="390.53,167.74 388.06,167.60 386.13,168.28 384.73,169.79 383.87,172.13"/>
    </edge>
    <edge id=":1903761275_1" function="internal">
        <lane id=":1903761275_1_0" index="0" disallow="tram rail_urban rail rail_electric ship" speed="13.89" length="14.39" shape="390.53,167.74 376.44,164.81"/>
    </edge>
    <edge id=":1903761275_2" function="internal">
        <lane id=":1903761275_2_0" index="0" disallow="tram rail_urban rail rail_electric ship" speed="3.65" length="2.34" shape="390.53,167.74 389.51,166.72 389.28,165.86"/>
    </edge>
    <edge id=":1903761275_9" function="internal">
        <lane id=":1903761275_9_0" index="0" disallow="tram rail_urban rail rail_electric ship" speed="3.65" length="2.34" shape="389.28,165.86 389.83,165.15 391.17,164.61"/>
    </edge>
    <edge id=":1903761275_3" function="internal">
        <lane id=":1903761275_3_0" index="0" disallow="tram rail_urban rail rail_electric ship" speed="13.89" length="14.36" shape="377.10,161.68 391.17,164.61"/>
    </edge>
    <edge id=":1903761275_4" function="internal">
        <lane id=":1903761275_4_0" index="0" disallow="tram rail_urban rail rail_electric ship" speed="7.99" length="5.89" shape="377.10,161.68 380.76,163.02 382.22,164.38"/>
    </edge>
    <edge id=":1903761275_5" function="internal">
        <lane id=":1903761275_5_0" index="0" disallow="tram rail_urban rail rail_electric ship" speed="3.65" length="2.34" shape="377.10,161.68 378.11,162.71 378.34,163.58"/>
    </edge>
    <edge id=":1903761275_10" function="internal">
        <lane id=":1903761275_10_0" index="0" disallow="tram rail_urban rail rail_electric ship" speed="7.99" length="8.32" shape="382.22,164.38 383.11,165.21 384.14,168.25 383.87,172.13"/>
    </edge>
    <edge id=":1903761275_11" function="internal">
        <lane id=":1903761275_11_0" index="0" disallow="tram rail_urban rail rail_electric ship" speed="3.65" length="2.34" shape="378.34,163.58 377.78,164.28 376.44,164.81"/>
    </edge>
    <edge id=":1903761275_6" function="internal">
        <lane id=":1903761275_6_0" index="0" disallow="tram rail_urban rail rail_electric ship" speed="6.50" length="9.03" shape="380.74,171.45 380.91,168.98 380.26,167.05 378.76,165.66 376.44,164.81"/>
    </edge>
    <edge id=":1903761275_7" function="internal">
        <lane id=":1903761275_7_0" index="0" disallow="tram rail_urban rail rail_electric ship" speed="8.03" length="14.19" shape="380.74,171.45 382.09,167.80 384.27,165.44 387.30,164.38 391.17,164.61"/>
    </edge>
    <edge id=":1903761275_8" function="internal">
        <lane id=":1903761275_8_0" index="0" disallow="tram rail_urban rail rail_electric ship" speed="3.65" length="4.67" shape="380.74,171.45 381.77,170.45 382.64,170.23 383.34,170.79 383.87,172.13"/>
    </edge>
    <edge id=":1939881366_0" function="internal">
        <lane id=":1939881366_0_0" index="0" disallow="tram rail_urban rail rail_electric ship" speed="13.89" length="0.75" shape="621.82,89.92 621.80,89.81 621.78,89.73 621.75,89.66 621.71,89.56"/>
        <lane id=":1939881366_0_1" index="1" disallow="tram rail_urban rail rail_electric ship" speed="13.89" length="0.75" shape="624.96,89.29 624.89,88.96 624.83,88.74 624.75,88.52 624.61,88.22"/>
    </edge>
    <edge id=":1939881366_2" function="internal">
        <lane id=":1939881366_2_0" index="0" disallow="tram rail_urban rail rail_electric ship" speed="13.89" length="1.89" shape="627.51,86.87 627.75,87.38 627.88,87.74 627.98,88.11 628.10,88.66"/>
    </edge>
    <edge id=":1939893190_0" function="internal">
        <lane id=":1939893190_0_0" index="0" allow="delivery bicycle pedestrian" speed="5.56" length="0.30" shape="247.10,383.95 246.84,383.78"/>
    </edge>
    <edge id=":1939893190_1" function="internal">
        <lane id=":1939893190_1_0" index="0" allow="delivery bicycle pedestrian" speed="5.56" length="0.10" shape="248.68,381.16 248.77,381.22"/>
    </edge>
    <edge id=":1999392089_0" function="internal">
        <lane id=":1999392089_0_0" index="0" allow="delivery bicycle pedestrian" speed="5.56" length="9.27" shape="385.39,293.23 382.65,284.38"/>
    </edge>
    <edge id=":1999392089_1" function="internal">
        <lane id=":1999392089_1_0" index="0" allow="delivery bicycle pedestrian" speed="5.56" length="10.66" shape="385.39,293.23 384.98,290.30 385.64,288.03 387.37,286.41 390.17,285.46"/>
    </edge>
    <edge id=":1999392089_2" function="internal">
        <lane id=":1999392089_2_0" index="0" allow="delivery bicycle pedestrian" speed="3.65" length="4.67" shape="385.39,293.23 385.82,291.86 386.48,291.25 387.36,291.41 388.46,292.34"/>
    </edge>
    <edge id=":1999392089_3" function="internal">
        <lane id=":1999392089_3_0" index="0" allow="delivery bicycle pedestrian" speed="4.94" length="5.12" shape="390.76,288.60 389.41,289.06 388.58,289.84 388.26,290.93 388.46,292.34"/>
    </edge>
    <edge id=":1999392089_4" function="internal">
        <lane id=":1999392089_4_0" index="0" allow="delivery bicycle pedestrian" speed="5.56" length="10.14" shape="390.76,288.60 387.88,288.78 385.57,288.14 383.83,286.67 382.65,284.38"/>
    </edge>
    <edge id=":1999392089_5" function="internal">
        <lane id=":1999392089_5_0" index="0" allow="delivery bicycle pedestrian" speed="3.65" length="4.67" shape="390.76,288.60 389.43,288.04 388.89,287.32 389.14,286.46 390.17,285.46"/>
    </edge>
    <edge id=":1999392089_6" function="internal">
        <lane id=":1999392089_6_0" index="0" allow="delivery bicycle pedestrian" speed="5.48" length="5.47" shape="385.69,283.37 386.31,284.54 387.27,285.27 388.55,285.58 390.17,285.46"/>
    </edge>
    <edge id=":1999392089_7" function="internal">
        <lane id=":1999392089_7_0" index="0" allow="delivery bicycle pedestrian" speed="5.56" length="9.38" shape="385.69,283.37 388.46,292.34"/>
    </edge>
    <edge id=":1999392089_8" function="internal">
        <lane id=":1999392089_8_0" index="0" allow="delivery bicycle pedestrian" speed="3.65" length="4.67" shape="385.69,283.37 385.31,284.76 384.67,285.39 383.79,285.27 382.65,284.38"/>
    </edge>
    <edge id=":1999392102_0" function="internal">
        <lane id=":1999392102_0_0" index="0" allow="delivery bicycle pedestrian" speed="5.56" length="7.30" shape="393.57,305.54 391.59,305.66 390.01,305.15 388.80,303.98 387.99,302.18"/>
    </edge>
    <edge id=":1999392102_1" function="internal">
        <lane id=":1999392102_1_0" index="0" allow="delivery bicycle pedestrian" speed="3.91" length="2.43" shape="391.06,301.28 391.34,301.89 391.74,302.27 392.27,302.45 392.92,302.40"/>
    </edge>
    <edge id=":1999392108_0" function="internal">
        <lane id=":1999392108_0_0" index="0" allow="delivery bicycle pedestrian" speed="5.56" length="6.09" shape="537.34,296.33 543.35,297.31"/>
    </edge>
    <edge id=":1999392108_1" function="internal">
        <lane id=":1999392108_1_0" index="0" allow="delivery bicycle pedestrian" speed="5.49" length="5.98" shape="537.34,296.33 539.15,296.85 540.37,297.65 541.02,298.74 541.08,300.10"/>
    </edge>
    <edge id=":1999392108_2" function="internal">
        <lane id=":1999392108_2_0" index="0" allow="delivery bicycle pedestrian" speed="5.56" length="6.62" shape="537.92,299.63 538.43,298.34 539.50,297.52 541.14,297.17 543.35,297.31"/>
    </edge>
    <edge id=":1999392108_3" function="internal">
        <lane id=":1999392108_3_0" index="0" allow="delivery bicycle pedestrian" speed="3.65" length="4.67" shape="537.92,299.63 538.89,298.56 539.74,298.28 540.47,298.80 541.08,300.10"/>
    </edge>
    <edge id=":1999392126_0" function="internal">
        <lane id=":1999392126_0_0" index="0" allow="delivery bicycle pedestrian" speed="3.65" length="4.67" shape="537.00,322.97 535.99,324.01 535.13,324.25 534.42,323.71 533.85,322.39"/>
    </edge>
    <edge id=":1999392138_0" function="internal">
        <lane id=":1999392138_0_0" index="0" allow="delivery bicycle pedestrian" speed="5.56" length="9.44" shape="541.14,437.82 539.45,447.11"/>
    </edge>
    <edge id=":1999392138_1" function="internal">
        <lane id=":1999392138_1_0" index="0" allow="delivery bicycle pedestrian" speed="5.56" length="10.18" shape="541.14,437.82 540.27,440.46 538.75,442.20 536.60,443.02 533.81,442.92"/>
    </edge>
    <edge id=":1999392138_2" function="internal">
        <lane id=":1999392138_2_0" index="0" allow="delivery bicycle pedestrian" speed="3.65" length="4.67" shape="541.14,437.82 540.14,438.86 539.28,439.12 538.56,438.58 537.98,437.26"/>
    </edge>
    <edge id=":1999392138_3" function="internal">
        <lane id=":1999392138_3_0" index="0" allow="delivery bicycle pedestrian" speed="5.05" length="5.02" shape="534.37,439.77 535.75,439.82 536.81,439.41 537.56,438.56 537.98,437.26"/>
    </edge>
    <edge id=":1999392138_4" function="internal">
        <lane id=":1999392138_4_0" index="0" allow="delivery bicycle pedestrian" speed="5.56" length="10.20" shape="534.37,439.77 537.03,440.64 538.76,442.16 539.57,444.31 539.45,447.11"/>
    </edge>
    <edge id=":1999392138_5" function="internal">
        <lane id=":1999392138_5_0" index="0" allow="delivery bicycle pedestrian" speed="3.65" length="4.67" shape="534.37,439.77 535.41,440.77 535.66,441.62 535.13,442.34 533.81,442.92"/>
    </edge>
    <edge id=":1999392138_6" function="internal">
        <lane id=":1999392138_6_0" index="0" allow="delivery bicycle pedestrian" speed="5.03" length="5.01" shape="536.30,446.52 536.36,445.15 535.96,444.09 535.11,443.35 533.81,442.92"/>
    </edge>
    <edge id=":1999392138_7" function="internal">
        <lane id=":1999392138_7_0" index="0" allow="delivery bicycle pedestrian" speed="5.56" length="9.41" shape="536.30,446.52 537.98,437.26"/>
    </edge>
    <edge id=":1999392138_8" function="internal">
        <lane id=":1999392138_8_0" index="0" allow="delivery bicycle pedestrian" speed="3.65" length="4.67" shape="536.30,446.52 537.31,445.49 538.17,445.24 538.88,445.78 539.45,447.11"/>
    </edge>
    <edge id=":1999392142_0" function="internal">
        <lane id=":1999392142_0_0" index="0" allow="delivery bicycle pedestrian" speed="5.10" length="5.13" shape="504.95,549.67 503.44,549.59 502.29,549.94 501.50,550.73 501.06,551.96"/>
    </edge>
    <edge id=":1999392142_1" function="internal">
        <lane id=":1999392142_1_0" index="0" allow="delivery bicycle pedestrian" speed="3.65" length="4.67" shape="504.95,549.67 503.90,548.67 503.65,547.81 504.18,547.10 505.50,546.52"/>
    </edge>
    <edge id=":1999392142_2" function="internal">
        <lane id=":1999392142_2_0" index="0" allow="delivery bicycle pedestrian" speed="5.04" length="5.00" shape="502.99,542.92 502.94,544.29 503.35,545.35 504.20,546.09 505.50,546.52"/>
    </edge>
    <edge id=":1999392142_3" function="internal">
        <lane id=":1999392142_3_0" index="0" allow="delivery bicycle pedestrian" speed="5.56" length="9.24" shape="502.99,542.92 501.06,551.96"/>
    </edge>
    <edge id=":1999441019_0" function="internal">
        <lane id=":1999441019_0_0" index="0" allow="delivery bicycle pedestrian" speed="5.56" length="0.32" shape="420.18,714.96 420.12,715.27"/>
    </edge>
    <edge id=":1999441019_1" function="internal">