<?xml version="1.0" encoding="UTF-8"?>

<!-- generated on 2020. márc. 22., vasárnap, 20:08:01 CET by Eclipse SUMO netedit Version 1.2.0
<configuration xmlns:xsi="http://www.w3.org/2001/XMLSchema-instance" xsi:noNamespaceSchemaLocation="http://sumo.dlr.de/xsd/netconvertConfiguration.xsd">

    <input>
        <sumo-net-file value="/home/tom/Dokumentumok/SUMO/MAS/MAS/sumo-agent-examples/HelloWorld/helloWorld.net.xml"/>
    </input>

    <output>
        <output-file value="/home/tom/Dokumentumok/SUMO/MAS/MAS/sumo-agent-examples/HelloWorld/helloWorld.net.xml"/>
    </output>

    <processing>
        <geometry.max-grade.fix value="false"/>
        <offset.disable-normalization value="true"/>
        <lefthand value="false"/>
    </processing>

    <junctions>
        <no-turnarounds value="true"/>
        <junctions.corner-detail value="5"/>
        <junctions.limit-turn-speed value="5.5"/>
        <rectangular-lane-cut value="false"/>
    </junctions>

    <pedestrian>
        <walkingareas value="false"/>
    </pedestrian>

    <visualisation>
        <registry-viewport value="true"/>
    </visualisation>

</configuration>
-->

<net version="1.1" junctionCornerDetail="5" limitTurnSpeed="5.50" xmlns:xsi="http://www.w3.org/2001/XMLSchema-instance" xsi:noNamespaceSchemaLocation="http://sumo.dlr.de/xsd/net_file.xsd">

    <location netOffset="0.00,0.00" convBoundary="-100.00,34.61,100.00,65.75" origBoundary="-10000000000.00,-10000000000.00,10000000000.00,10000000000.00" projParameter="!"/>

    <edge id=":2_0" function="internal">
        <lane id=":2_0_0" index="0" speed="13.23" length="6.88" shape="-2.29,48.40 -0.30,48.26 1.02,47.82 2.27,47.09 4.05,46.07"/>
    </edge>
    <edge id=":2_1" function="internal">
        <lane id=":2_1_0" index="0" speed="13.37" length="6.74" shape="-2.29,48.40 -0.31,48.48 1.02,48.78 2.29,49.36 4.06,50.29"/>
    </edge>
    <edge id=":gneJ2_0" function="internal">
        <lane id=":gneJ2_0_0" index="0" speed="4.32" length="1.13" shape="28.55,33.19 28.84,33.05 29.07,32.98 29.30,32.98 29.63,33.05"/>
    </edge>
    <edge id=":gneJ5_0" function="internal">
        <lane id=":gneJ5_0_0" index="0" speed="4.32" length="1.13" shape="30.35,63.79 30.65,63.94 30.87,64.00 31.10,64.00 31.43,63.93"/>
    </edge>

    <edge id="gneE0" from="1" to="2" priority="-1" length="40.00">
        <lane id="gneE0_0" index="0" speed="13.89" length="40.00" shape="-100.00,48.40 -2.29,48.40"/>
    </edge>
    <edge id="gneE10" from="2" to="gneJ5" priority="-1" length="30.00">
        <lane id="gneE10_0" index="0" speed="13.89" length="30.00" shape="4.06,50.29 30.35,63.79"/>
    </edge>
    <edge id="gneE11" from="gneJ5" to="3" priority="-1" length="20.00">
        <lane id="gneE11_0" index="0" speed="13.89" length="20.00" shape="31.43,63.93 91.51,50.29"/>
    </edge>
    <edge id="gneE7" from="2" to="gneJ2" priority="-1" length="30.00">
        <lane id="gneE7_0" index="0" speed="13.89" length="30.00" shape="4.05,46.07 28.55,33.19"/>
    </edge>
    <edge id="gneE8" from="gneJ2" to="3" priority="-1" length="20.00">
        <lane id="gneE8_0" index="0" speed="13.89" length="20.00" shape="29.63,33.05 91.50,46.51"/>
    </edge>

    <junction id="1" type="dead_end" x="-100.00" y="50.00" incLanes="" intLanes="" shape="-100.00,50.00 -100.00,46.80"/>
    <junction id="2" type="priority" x="0.00" y="50.00" incLanes="gneE0_0" intLanes=":2_0_0 :2_1_0" shape="3.33,51.71 4.80,48.87 4.20,48.41 4.13,48.18 4.20,47.95 4.42,47.72 4.79,47.48 3.30,44.65 0.63,46.25 -0.10,46.55 -1.02,46.74 -2.29,46.80 -2.29,50.00 -0.11,50.15 0.64,50.35 1.37,50.67">
        <request index="0" response="00" foes="00" cont="0"/>
        <request index="1" response="00" foes="00" cont="0"/>
    </junction>
    <junction id="3" type="dead_end" x="100.00" y="50.00" incLanes="gneE8_0 gneE11_0" intLanes="" shape="91.84,44.95 91.16,48.08 91.16,48.73 91.87,51.85 96.17,50.68 98.75,49.52 99.61,48.36 98.74,47.22 96.15,46.08"/>
    <junction id="gneJ2" type="priority" x="29.29" y="34.61" incLanes="gneE7_0" intLanes=":gneJ2_0_0" shape="29.29,34.61 29.97,31.48 29.15,31.34 28.85,31.35 28.56,31.42 28.22,31.56 27.80,31.78">
        <request index="0" response="0" foes="0" cont="0"/>
    </junction>
    <junction id="gneJ5" type="priority" x="30.65" y="65.75" incLanes="gneE10_0" intLanes=":gneJ5_0_0" shape="31.79,65.49 31.08,62.37 29.61,65.22 30.37,65.57 30.66,65.63 30.96,65.64 31.32,65.59">
        <request index="0" response="0" foes="0" cont="0"/>
    </junction>

    <connection from="gneE0" to="gneE7" fromLane="0" toLane="0" via=":2_0_0" dir="R" state="M"/>
    <connection from="gneE0" to="gneE10" fromLane="0" toLane="0" via=":2_1_0" dir="s" state="M"/>
    <connection from="gneE10" to="gneE11" fromLane="0" toLane="0" via=":gneJ5_0_0" dir="s" state="M"/>
    <connection from="gneE7" to="gneE8" fromLane="0" toLane="0" via=":gneJ2_0_0" dir="s" state="M"/>

    <connection from=":2_0" to="gneE7" fromLane="0" toLane="0" dir="R" state="M"/>
    <connection from=":2_1" to="gneE10" fromLane="0" toLane="0" dir="s" state="M"/>
    <connection from=":gneJ2_0" to="gneE8" fromLane="0" toLane="0" dir="s" state="M"/>
    <connection from=":gneJ5_0" to="gneE11" fromLane="0" toLane="0" dir="s" state="M"/>

</net>
