<?xml version="1.0" encoding="UTF-8"?>

<!-- generated on 2019. dec. 24., kedd, 20:07:00 CET by Eclipse SUMO netedit Version 1.2.0
<configuration xmlns:xsi="http://www.w3.org/2001/XMLSchema-instance" xsi:noNamespaceSchemaLocation="http://sumo.dlr.de/xsd/netconvertConfiguration.xsd">

    <output>
        <output-file value="/home/tom/Dokumentumok/SUMO/helloWorld.net.xml"/>
    </output>

    <processing>
        <offset.disable-normalization value="true"/>
    </processing>

    <junctions>
        <no-turnarounds value="true"/>
    </junctions>

    <netedit>
        <route-files value="/home/tom/Dokumentumok/SUMO/helloWorld.rou.xml"/>
    </netedit>

</configuration>
-->

<routes xmlns:xsi="http://www.w3.org/2001/XMLSchema-instance" xsi:noNamespaceSchemaLocation="http://sumo.dlr.de/xsd/routes_file.xsd">
    <vType id="FAST" maxSpeed="30.00" color="red" length="5"/>
    <vType id="MEDIUM" maxSpeed="10.00" color="yellow" length="5"/>
    <vType id="SLOW" maxSpeed="2.00" color="cyan" length="5"/>
</routes>
