<?xml version="1.0" encoding="UTF-8"?>

<!-- generated on Wed Feb  7 13:08:07 2018 by SUMO duarouter Version 0.32.0
<?xml version="1.0" encoding="UTF-8"?>

<configuration xmlns:xsi="http://www.w3.org/2001/XMLSchema-instance" xsi:noNamespaceSchemaLocation="http://sumo.dlr.de/xsd/duarouterConfiguration.xsd">

    <input>
        <net-file value="street.net.xml"/>
        <route-files value="trips.trips.xml"/>
    </input>

    <output>
        <output-file value="street.rou.xml"/>
        <alternatives-output value="street.rou.alt.xml"/>
    </output>

    <processing>
        <ignore-errors value="true"/>
    </processing>

    <time>
        <begin value="0"/>
        <end value="100.0"/>
    </time>

    <report>
        <no-warnings value="true"/>
        <no-step-log value="true"/>
    </report>

</configuration>
-->

<routes xmlns:xsi="http://www.w3.org/2001/XMLSchema-instance" xsi:noNamespaceSchemaLocation="http://sumo.dlr.de/xsd/routes_file.xsd">
    <vType id="FAST" maxSpeed="30.00" color="red" length="5"/>
    <vType id="MEDIUM" maxSpeed="20.00" color="yellow" length="5"/>
    <vType id="SLOW" maxSpeed="1.00" color="cyan" length="5"/>
</routes>
